<?xml version="1.0" encoding="UTF-8"?>

<routes>
    <vType accel="1.0" decel="5.0" id="Car" length="2.0" maxSpeed="30.0" sigma="0.0" />

    <flow id="flowallNS1" color="1,0,0"  begin="0" end= "5000" probability="0.50" type="Car">
    <route edges="U1_i ag13_N_i ag13_S_o ag12_N_i ag12_S_o ag11_N_i ag11_S_o B1_o"/>
    </flow>

    <flow id="flowallNS2" color="1,0,0.5"  begin="0" end= "5000" probability="0.50" type="Car">
    <route edges="U2_i ag23_N_i ag23_S_o ag22_N_i ag22_S_o ag21_N_i ag21_S_o B2_o"/>
    </flow>

    <flow id="flowallNS3" color="0.5,1,0"  begin="0" end= "5000" probability="0.50" type="Car">
    <route edges="U3_i ag33_N_i ag33_S_o ag32_N_i ag32_S_o ag31_N_i ag31_S_o B3_o"/>
    </flow>



    <!--
    <flow id="flowNS1st" color="0,1,0"  begin="0" end= "99999" probability="0.01" type="Car">
    <route edges="0Ni 3Ni"/>
    </flow>

    <flow id="flowNS2nd" color="0,1,0"  begin="0" end= "99999" probability="0.01" type="Car">
    <route edges="1Ni 4Ni"/>
    </flow>

    <flow id="flowNS3rd" color="0,1,0"  begin="0" end= "99999" probability="0.01" type="Car">
    <route edges="2Ni 5Ni"/>
    </flow>
    -->
</routes>