<?xml version="1.0" encoding="UTF-8"?>

<routes>
    <vType accel="1.0" decel="5.0" id="Car" length="2.0" maxSpeed="30.0" sigma="0.0" />

    <flow id="flowallWE1" color="1,0,0"  begin="0" end= "5000" probability="0.50" type="Car">
    <route edges="L1_i ag11_W_i ag11_E_o ag21_W_i ag21_E_o ag31_W_i ag31_E_o R1_o"/>
    </flow>

    <flow id="flowallWE2" color="1,0,0.5"  begin="0" end= "5000" probability="0.50" type="Car">
    <route edges="L2_i ag12_W_i ag12_E_o ag22_W_i ag22_E_o ag32_W_i ag32_E_o R2_o"/>
    </flow>

    <flow id="flowallWE3" color="0.5,1,0"  begin="0" end= "5000" probability="0.50" type="Car">
    <route edges="L3_i ag13_W_i ag13_E_o ag23_W_i ag23_E_o ag33_W_i ag33_E_o R3_o"/>
    </flow>



    <!--
    <flow id="flowNS1st" color="0,1,0"  begin="0" end= "99999" probability="0.01" type="Car">
    <route edges="0Ni 3Ni"/>
    </flow>

    <flow id="flowNS2nd" color="0,1,0"  begin="0" end= "99999" probability="0.01" type="Car">
    <route edges="1Ni 4Ni"/>
    </flow>

    <flow id="flowNS3rd" color="0,1,0"  begin="0" end= "99999" probability="0.01" type="Car">
    <route edges="2Ni 5Ni"/>
    </flow>
    -->
</routes>