<?xml version="1.0" encoding="UTF-8"?>

<!-- generated on Sun 19 Aug 2018 03:13:02 PM IST by Netedit Version 0.32.0
<?xml version="1.0" encoding="UTF-8"?>

<configuration xmlns:xsi="http://www.w3.org/2001/XMLSchema-instance" xsi:noNamespaceSchemaLocation="http://sumo.dlr.de/xsd/netconvertConfiguration.xsd">

    <input>
        <sumo-net-file value="/home/rahul/Projects/MARLI_3x3/3x3cross/3x3cross.net.xml"/>
    </input>

    <output>
        <output-file value="/home/rahul/Projects/MARLI_3x3/3x3cross/3x3cross.net.xml"/>
    </output>

    <processing>
        <no-turnarounds value="true"/>
        <offset.disable-normalization value="true"/>
        <lefthand value="false"/>
        <junctions.corner-detail value="0"/>
        <rectangular-lane-cut value="false"/>
        <walkingareas value="false"/>
    </processing>

</configuration>
-->

<net version="0.27" xmlns:xsi="http://www.w3.org/2001/XMLSchema-instance" xsi:noNamespaceSchemaLocation="http://sumo.dlr.de/xsd/net_file.xsd">

    <location netOffset="250.00,550.00" convBoundary="-300.00,-100.00,2100.00,2300.00" origBoundary="-250.00,-550.00,550.00,250.00" projParameter="!"/>

    <edge id=":1_0" function="internal">
        <lane id=":1_0_0" index="0" speed="13.89" length="0.10" shape="600.00,501.65 600.00,501.65"/>
    </edge>
    <edge id=":1_1" function="internal">
        <lane id=":1_1_0" index="0" speed="13.89" length="0.10" shape="600.00,498.35 600.00,498.35"/>
    </edge>
    <edge id=":14_0" function="internal">
        <lane id=":14_0_0" index="0" speed="13.89" length="0.10" shape="0.00,501.65 0.00,501.65"/>
    </edge>
    <edge id=":14_1" function="internal">
        <lane id=":14_1_0" index="0" speed="13.89" length="0.10" shape="0.00,498.35 0.00,498.35"/>
    </edge>
    <edge id=":15_0" function="internal">
        <lane id=":15_0_0" index="0" speed="13.89" length="0.10" shape="298.35,800.00 298.35,800.00"/>
    </edge>
    <edge id=":15_1" function="internal">
        <lane id=":15_1_0" index="0" speed="13.89" length="0.10" shape="301.65,800.00 301.65,800.00"/>
    </edge>
    <edge id=":3_0" function="internal">
        <lane id=":3_0_0" index="0" speed="13.89" length="0.10" shape="298.35,200.00 298.35,200.00"/>
    </edge>
    <edge id=":3_1" function="internal">
        <lane id=":3_1_0" index="0" speed="13.89" length="0.10" shape="301.65,200.00 301.65,200.00"/>
    </edge>
    <edge id=":ag11_0" function="internal">
        <lane id=":ag11_0_0" index="0" speed="13.89" length="5.00" shape="298.35,504.75 298.16,503.39 297.58,502.42 296.61,501.84 295.25,501.65"/>
    </edge>
    <edge id=":ag11_1" function="internal">
        <lane id=":ag11_1_0" index="0" speed="13.89" length="9.50" shape="298.35,504.75 298.35,495.25"/>
    </edge>
    <edge id=":ag11_2" function="internal">
        <lane id=":ag11_2_0" index="0" speed="13.89" length="5.28" shape="298.35,504.75 298.75,501.95 299.95,499.95 300.05,499.89"/>
    </edge>
    <edge id=":ag11_12" function="internal">
        <lane id=":ag11_12_0" index="0" speed="13.89" length="5.04" shape="300.05,499.89 301.95,498.75 304.75,498.35"/>
    </edge>
    <edge id=":ag11_3" function="internal">
        <lane id=":ag11_3_0" index="0" speed="13.89" length="5.00" shape="304.75,501.65 303.39,501.84 302.42,502.42 301.84,503.39 301.65,504.75"/>
    </edge>
    <edge id=":ag11_4" function="internal">
        <lane id=":ag11_4_0" index="0" speed="13.89" length="9.50" shape="304.75,501.65 295.25,501.65"/>
    </edge>
    <edge id=":ag11_5" function="internal">
        <lane id=":ag11_5_0" index="0" speed="13.89" length="5.28" shape="304.75,501.65 301.95,501.25 299.95,500.05 299.89,499.95"/>
    </edge>
    <edge id=":ag11_13" function="internal">
        <lane id=":ag11_13_0" index="0" speed="13.89" length="5.04" shape="299.89,499.95 298.75,498.05 298.35,495.25"/>
    </edge>
    <edge id=":ag11_6" function="internal">
        <lane id=":ag11_6_0" index="0" speed="13.89" length="5.00" shape="301.65,495.25 301.84,496.61 302.42,497.58 303.39,498.16 304.75,498.35"/>
    </edge>
    <edge id=":ag11_7" function="internal">
        <lane id=":ag11_7_0" index="0" speed="13.89" length="9.50" shape="301.65,495.25 301.65,504.75"/>
    </edge>
    <edge id=":ag11_8" function="internal">
        <lane id=":ag11_8_0" index="0" speed="13.89" length="5.28" shape="301.65,495.25 301.25,498.05 300.05,500.05 299.95,500.11"/>
    </edge>
    <edge id=":ag11_14" function="internal">
        <lane id=":ag11_14_0" index="0" speed="13.89" length="5.04" shape="299.95,500.11 298.05,501.25 295.25,501.65"/>
    </edge>
    <edge id=":ag11_9" function="internal">
        <lane id=":ag11_9_0" index="0" speed="13.89" length="5.00" shape="295.25,498.35 296.61,498.16 297.58,497.58 298.16,496.61 298.35,495.25"/>
    </edge>
    <edge id=":ag11_10" function="internal">
        <lane id=":ag11_10_0" index="0" speed="13.89" length="9.50" shape="295.25,498.35 304.75,498.35"/>
    </edge>
    <edge id=":ag11_11" function="internal">
        <lane id=":ag11_11_0" index="0" speed="13.89" length="5.28" shape="295.25,498.35 298.05,498.75 300.05,499.95 300.11,500.05"/>
    </edge>
    <edge id=":ag11_15" function="internal">
        <lane id=":ag11_15_0" index="0" speed="13.89" length="5.04" shape="300.11,500.05 301.25,501.95 301.65,504.75"/>
    </edge>
    <edge id=":ag12_0" function="internal">
        <lane id=":ag12_0_0" index="0" speed="13.89" length="5.00" shape="298.35,1104.75 298.16,1103.39 297.58,1102.43 296.61,1101.84 295.25,1101.65"/>
    </edge>
    <edge id=":ag12_1" function="internal">
        <lane id=":ag12_1_0" index="0" speed="13.89" length="9.50" shape="298.35,1104.75 298.35,1095.25"/>
    </edge>
    <edge id=":ag12_2" function="internal">
        <lane id=":ag12_2_0" index="0" speed="13.89" length="5.28" shape="298.35,1104.75 298.75,1101.95 299.95,1099.95 300.05,1099.89"/>
    </edge>
    <edge id=":ag12_12" function="internal">
        <lane id=":ag12_12_0" index="0" speed="13.89" length="5.04" shape="300.05,1099.89 301.95,1098.75 304.75,1098.35"/>
    </edge>
    <edge id=":ag12_3" function="internal">
        <lane id=":ag12_3_0" index="0" speed="13.89" length="5.00" shape="304.75,1101.65 303.39,1101.84 302.42,1102.43 301.84,1103.39 301.65,1104.75"/>
    </edge>
    <edge id=":ag12_4" function="internal">
        <lane id=":ag12_4_0" index="0" speed="13.89" length="9.50" shape="304.75,1101.65 295.25,1101.65"/>
    </edge>
    <edge id=":ag12_5" function="internal">
        <lane id=":ag12_5_0" index="0" speed="13.89" length="5.28" shape="304.75,1101.65 301.95,1101.25 299.95,1100.05 299.89,1099.95"/>
    </edge>
    <edge id=":ag12_13" function="internal">
        <lane id=":ag12_13_0" index="0" speed="13.89" length="5.04" shape="299.89,1099.95 298.75,1098.05 298.35,1095.25"/>
    </edge>
    <edge id=":ag12_6" function="internal">
        <lane id=":ag12_6_0" index="0" speed="13.89" length="5.00" shape="301.65,1095.25 301.84,1096.61 302.42,1097.57 303.39,1098.16 304.75,1098.35"/>
    </edge>
    <edge id=":ag12_7" function="internal">
        <lane id=":ag12_7_0" index="0" speed="13.89" length="9.50" shape="301.65,1095.25 301.65,1104.75"/>
    </edge>
    <edge id=":ag12_8" function="internal">
        <lane id=":ag12_8_0" index="0" speed="13.89" length="5.28" shape="301.65,1095.25 301.25,1098.05 300.05,1100.05 299.95,1100.11"/>
    </edge>
    <edge id=":ag12_14" function="internal">
        <lane id=":ag12_14_0" index="0" speed="13.89" length="5.04" shape="299.95,1100.11 298.05,1101.25 295.25,1101.65"/>
    </edge>
    <edge id=":ag12_9" function="internal">
        <lane id=":ag12_9_0" index="0" speed="13.89" length="5.00" shape="295.25,1098.35 296.61,1098.16 297.58,1097.57 298.16,1096.61 298.35,1095.25"/>
    </edge>
    <edge id=":ag12_10" function="internal">
        <lane id=":ag12_10_0" index="0" speed="13.89" length="9.50" shape="295.25,1098.35 304.75,1098.35"/>
    </edge>
    <edge id=":ag12_11" function="internal">
        <lane id=":ag12_11_0" index="0" speed="13.89" length="5.28" shape="295.25,1098.35 298.05,1098.75 300.05,1099.95 300.11,1100.05"/>
    </edge>
    <edge id=":ag12_15" function="internal">
        <lane id=":ag12_15_0" index="0" speed="13.89" length="5.04" shape="300.11,1100.05 301.25,1101.95 301.65,1104.75"/>
    </edge>
    <edge id=":ag13_0" function="internal">
        <lane id=":ag13_0_0" index="0" speed="13.89" length="5.00" shape="298.35,1704.75 298.16,1703.39 297.58,1702.43 296.61,1701.84 295.25,1701.65"/>
    </edge>
    <edge id=":ag13_1" function="internal">
        <lane id=":ag13_1_0" index="0" speed="13.89" length="9.50" shape="298.35,1704.75 298.35,1695.25"/>
    </edge>
    <edge id=":ag13_2" function="internal">
        <lane id=":ag13_2_0" index="0" speed="13.89" length="5.28" shape="298.35,1704.75 298.75,1701.95 299.95,1699.95 300.05,1699.89"/>
    </edge>
    <edge id=":ag13_12" function="internal">
        <lane id=":ag13_12_0" index="0" speed="13.89" length="5.04" shape="300.05,1699.89 301.95,1698.75 304.75,1698.35"/>
    </edge>
    <edge id=":ag13_3" function="internal">
        <lane id=":ag13_3_0" index="0" speed="13.89" length="5.00" shape="304.75,1701.65 303.39,1701.84 302.42,1702.43 301.84,1703.39 301.65,1704.75"/>
    </edge>
    <edge id=":ag13_4" function="internal">
        <lane id=":ag13_4_0" index="0" speed="13.89" length="9.50" shape="304.75,1701.65 295.25,1701.65"/>
    </edge>
    <edge id=":ag13_5" function="internal">
        <lane id=":ag13_5_0" index="0" speed="13.89" length="5.28" shape="304.75,1701.65 301.95,1701.25 299.95,1700.05 299.89,1699.95"/>
    </edge>
    <edge id=":ag13_13" function="internal">
        <lane id=":ag13_13_0" index="0" speed="13.89" length="5.04" shape="299.89,1699.95 298.75,1698.05 298.35,1695.25"/>
    </edge>
    <edge id=":ag13_6" function="internal">
        <lane id=":ag13_6_0" index="0" speed="13.89" length="5.00" shape="301.65,1695.25 301.84,1696.61 302.42,1697.57 303.39,1698.16 304.75,1698.35"/>
    </edge>
    <edge id=":ag13_7" function="internal">
        <lane id=":ag13_7_0" index="0" speed="13.89" length="9.50" shape="301.65,1695.25 301.65,1704.75"/>
    </edge>
    <edge id=":ag13_8" function="internal">
        <lane id=":ag13_8_0" index="0" speed="13.89" length="5.28" shape="301.65,1695.25 301.25,1698.05 300.05,1700.05 299.95,1700.11"/>
    </edge>
    <edge id=":ag13_14" function="internal">
        <lane id=":ag13_14_0" index="0" speed="13.89" length="5.04" shape="299.95,1700.11 298.05,1701.25 295.25,1701.65"/>
    </edge>
    <edge id=":ag13_9" function="internal">
        <lane id=":ag13_9_0" index="0" speed="13.89" length="5.00" shape="295.25,1698.35 296.61,1698.16 297.58,1697.57 298.16,1696.61 298.35,1695.25"/>
    </edge>
    <edge id=":ag13_10" function="internal">
        <lane id=":ag13_10_0" index="0" speed="13.89" length="9.50" shape="295.25,1698.35 304.75,1698.35"/>
    </edge>
    <edge id=":ag13_11" function="internal">
        <lane id=":ag13_11_0" index="0" speed="13.89" length="5.28" shape="295.25,1698.35 298.05,1698.75 300.05,1699.95 300.11,1700.05"/>
    </edge>
    <edge id=":ag13_15" function="internal">
        <lane id=":ag13_15_0" index="0" speed="13.89" length="5.04" shape="300.11,1700.05 301.25,1701.95 301.65,1704.75"/>
    </edge>
    <edge id=":ag21_0" function="internal">
        <lane id=":ag21_0_0" index="0" speed="13.89" length="5.00" shape="898.35,504.75 898.16,503.39 897.58,502.42 896.61,501.84 895.25,501.65"/>
    </edge>
    <edge id=":ag21_1" function="internal">
        <lane id=":ag21_1_0" index="0" speed="13.89" length="9.50" shape="898.35,504.75 898.35,495.25"/>
    </edge>
    <edge id=":ag21_2" function="internal">
        <lane id=":ag21_2_0" index="0" speed="13.89" length="5.28" shape="898.35,504.75 898.75,501.95 899.95,499.95 900.05,499.89"/>
    </edge>
    <edge id=":ag21_12" function="internal">
        <lane id=":ag21_12_0" index="0" speed="13.89" length="5.04" shape="900.05,499.89 901.95,498.75 904.75,498.35"/>
    </edge>
    <edge id=":ag21_3" function="internal">
        <lane id=":ag21_3_0" index="0" speed="13.89" length="5.00" shape="904.75,501.65 903.39,501.84 902.43,502.42 901.84,503.39 901.65,504.75"/>
    </edge>
    <edge id=":ag21_4" function="internal">
        <lane id=":ag21_4_0" index="0" speed="13.89" length="9.50" shape="904.75,501.65 895.25,501.65"/>
    </edge>
    <edge id=":ag21_5" function="internal">
        <lane id=":ag21_5_0" index="0" speed="13.89" length="5.28" shape="904.75,501.65 901.95,501.25 899.95,500.05 899.89,499.95"/>
    </edge>
    <edge id=":ag21_13" function="internal">
        <lane id=":ag21_13_0" index="0" speed="13.89" length="5.04" shape="899.89,499.95 898.75,498.05 898.35,495.25"/>
    </edge>
    <edge id=":ag21_6" function="internal">
        <lane id=":ag21_6_0" index="0" speed="13.89" length="5.00" shape="901.65,495.25 901.84,496.61 902.42,497.58 903.39,498.16 904.75,498.35"/>
    </edge>
    <edge id=":ag21_7" function="internal">
        <lane id=":ag21_7_0" index="0" speed="13.89" length="9.50" shape="901.65,495.25 901.65,504.75"/>
    </edge>
    <edge id=":ag21_8" function="internal">
        <lane id=":ag21_8_0" index="0" speed="13.89" length="5.28" shape="901.65,495.25 901.25,498.05 900.05,500.05 899.95,500.11"/>
    </edge>
    <edge id=":ag21_14" function="internal">
        <lane id=":ag21_14_0" index="0" speed="13.89" length="5.04" shape="899.95,500.11 898.05,501.25 895.25,501.65"/>
    </edge>
    <edge id=":ag21_9" function="internal">
        <lane id=":ag21_9_0" index="0" speed="13.89" length="5.00" shape="895.25,498.35 896.61,498.16 897.57,497.58 898.16,496.61 898.35,495.25"/>
    </edge>
    <edge id=":ag21_10" function="internal">
        <lane id=":ag21_10_0" index="0" speed="13.89" length="9.50" shape="895.25,498.35 904.75,498.35"/>
    </edge>
    <edge id=":ag21_11" function="internal">
        <lane id=":ag21_11_0" index="0" speed="13.89" length="5.28" shape="895.25,498.35 898.05,498.75 900.05,499.95 900.11,500.05"/>
    </edge>
    <edge id=":ag21_15" function="internal">
        <lane id=":ag21_15_0" index="0" speed="13.89" length="5.04" shape="900.11,500.05 901.25,501.95 901.65,504.75"/>
    </edge>
    <edge id=":ag22_0" function="internal">
        <lane id=":ag22_0_0" index="0" speed="13.89" length="5.00" shape="898.35,1104.75 898.16,1103.39 897.58,1102.43 896.61,1101.84 895.25,1101.65"/>
    </edge>
    <edge id=":ag22_1" function="internal">
        <lane id=":ag22_1_0" index="0" speed="13.89" length="9.50" shape="898.35,1104.75 898.35,1095.25"/>
    </edge>
    <edge id=":ag22_2" function="internal">
        <lane id=":ag22_2_0" index="0" speed="13.89" length="5.28" shape="898.35,1104.75 898.75,1101.95 899.95,1099.95 900.05,1099.89"/>
    </edge>
    <edge id=":ag22_12" function="internal">
        <lane id=":ag22_12_0" index="0" speed="13.89" length="5.04" shape="900.05,1099.89 901.95,1098.75 904.75,1098.35"/>
    </edge>
    <edge id=":ag22_3" function="internal">
        <lane id=":ag22_3_0" index="0" speed="13.89" length="5.00" shape="904.75,1101.65 903.39,1101.84 902.43,1102.43 901.84,1103.39 901.65,1104.75"/>
    </edge>
    <edge id=":ag22_4" function="internal">
        <lane id=":ag22_4_0" index="0" speed="13.89" length="9.50" shape="904.75,1101.65 895.25,1101.65"/>
    </edge>
    <edge id=":ag22_5" function="internal">
        <lane id=":ag22_5_0" index="0" speed="13.89" length="5.28" shape="904.75,1101.65 901.95,1101.25 899.95,1100.05 899.89,1099.95"/>
    </edge>
    <edge id=":ag22_13" function="internal">
        <lane id=":ag22_13_0" index="0" speed="13.89" length="5.04" shape="899.89,1099.95 898.75,1098.05 898.35,1095.25"/>
    </edge>
    <edge id=":ag22_6" function="internal">
        <lane id=":ag22_6_0" index="0" speed="13.89" length="5.00" shape="901.65,1095.25 901.84,1096.61 902.42,1097.57 903.39,1098.16 904.75,1098.35"/>
    </edge>
    <edge id=":ag22_7" function="internal">
        <lane id=":ag22_7_0" index="0" speed="13.89" length="9.50" shape="901.65,1095.25 901.65,1104.75"/>
    </edge>
    <edge id=":ag22_8" function="internal">
        <lane id=":ag22_8_0" index="0" speed="13.89" length="5.28" shape="901.65,1095.25 901.25,1098.05 900.05,1100.05 899.95,1100.11"/>
    </edge>
    <edge id=":ag22_14" function="internal">
        <lane id=":ag22_14_0" index="0" speed="13.89" length="5.04" shape="899.95,1100.11 898.05,1101.25 895.25,1101.65"/>
    </edge>
    <edge id=":ag22_9" function="internal">
        <lane id=":ag22_9_0" index="0" speed="13.89" length="5.00" shape="895.25,1098.35 896.61,1098.16 897.57,1097.57 898.16,1096.61 898.35,1095.25"/>
    </edge>
    <edge id=":ag22_10" function="internal">
        <lane id=":ag22_10_0" index="0" speed="13.89" length="9.50" shape="895.25,1098.35 904.75,1098.35"/>
    </edge>
    <edge id=":ag22_11" function="internal">
        <lane id=":ag22_11_0" index="0" speed="13.89" length="5.28" shape="895.25,1098.35 898.05,1098.75 900.05,1099.95 900.11,1100.05"/>
    </edge>
    <edge id=":ag22_15" function="internal">
        <lane id=":ag22_15_0" index="0" speed="13.89" length="5.04" shape="900.11,1100.05 901.25,1101.95 901.65,1104.75"/>
    </edge>
    <edge id=":ag23_0" function="internal">
        <lane id=":ag23_0_0" index="0" speed="13.89" length="5.00" shape="898.35,1704.75 898.16,1703.39 897.58,1702.43 896.61,1701.84 895.25,1701.65"/>
    </edge>
    <edge id=":ag23_1" function="internal">
        <lane id=":ag23_1_0" index="0" speed="13.89" length="9.50" shape="898.35,1704.75 898.35,1695.25"/>
    </edge>
    <edge id=":ag23_2" function="internal">
        <lane id=":ag23_2_0" index="0" speed="13.89" length="5.28" shape="898.35,1704.75 898.75,1701.95 899.95,1699.95 900.05,1699.89"/>
    </edge>
    <edge id=":ag23_12" function="internal">
        <lane id=":ag23_12_0" index="0" speed="13.89" length="5.04" shape="900.05,1699.89 901.95,1698.75 904.75,1698.35"/>
    </edge>
    <edge id=":ag23_3" function="internal">
        <lane id=":ag23_3_0" index="0" speed="13.89" length="5.00" shape="904.75,1701.65 903.39,1701.84 902.43,1702.43 901.84,1703.39 901.65,1704.75"/>
    </edge>
    <edge id=":ag23_4" function="internal">
        <lane id=":ag23_4_0" index="0" speed="13.89" length="9.50" shape="904.75,1701.65 895.25,1701.65"/>
    </edge>
    <edge id=":ag23_5" function="internal">
        <lane id=":ag23_5_0" index="0" speed="13.89" length="5.28" shape="904.75,1701.65 901.95,1701.25 899.95,1700.05 899.89,1699.95"/>
    </edge>
    <edge id=":ag23_13" function="internal">
        <lane id=":ag23_13_0" index="0" speed="13.89" length="5.04" shape="899.89,1699.95 898.75,1698.05 898.35,1695.25"/>
    </edge>
    <edge id=":ag23_6" function="internal">
        <lane id=":ag23_6_0" index="0" speed="13.89" length="5.00" shape="901.65,1695.25 901.84,1696.61 902.42,1697.57 903.39,1698.16 904.75,1698.35"/>
    </edge>
    <edge id=":ag23_7" function="internal">
        <lane id=":ag23_7_0" index="0" speed="13.89" length="9.50" shape="901.65,1695.25 901.65,1704.75"/>
    </edge>
    <edge id=":ag23_8" function="internal">
        <lane id=":ag23_8_0" index="0" speed="13.89" length="5.28" shape="901.65,1695.25 901.25,1698.05 900.05,1700.05 899.95,1700.11"/>
    </edge>
    <edge id=":ag23_14" function="internal">
        <lane id=":ag23_14_0" index="0" speed="13.89" length="5.04" shape="899.95,1700.11 898.05,1701.25 895.25,1701.65"/>
    </edge>
    <edge id=":ag23_9" function="internal">
        <lane id=":ag23_9_0" index="0" speed="13.89" length="5.00" shape="895.25,1698.35 896.61,1698.16 897.57,1697.57 898.16,1696.61 898.35,1695.25"/>
    </edge>
    <edge id=":ag23_10" function="internal">
        <lane id=":ag23_10_0" index="0" speed="13.89" length="9.50" shape="895.25,1698.35 904.75,1698.35"/>
    </edge>
    <edge id=":ag23_11" function="internal">
        <lane id=":ag23_11_0" index="0" speed="13.89" length="5.28" shape="895.25,1698.35 898.05,1698.75 900.05,1699.95 900.11,1700.05"/>
    </edge>
    <edge id=":ag23_15" function="internal">
        <lane id=":ag23_15_0" index="0" speed="13.89" length="5.04" shape="900.11,1700.05 901.25,1701.95 901.65,1704.75"/>
    </edge>
    <edge id=":ag31_0" function="internal">
        <lane id=":ag31_0_0" index="0" speed="13.89" length="5.00" shape="1498.35,504.75 1498.16,503.39 1497.57,502.42 1496.61,501.84 1495.25,501.65"/>
    </edge>
    <edge id=":ag31_1" function="internal">
        <lane id=":ag31_1_0" index="0" speed="13.89" length="9.50" shape="1498.35,504.75 1498.35,495.25"/>
    </edge>
    <edge id=":ag31_2" function="internal">
        <lane id=":ag31_2_0" index="0" speed="13.89" length="5.28" shape="1498.35,504.75 1498.75,501.95 1499.95,499.95 1500.05,499.89"/>
    </edge>
    <edge id=":ag31_12" function="internal">
        <lane id=":ag31_12_0" index="0" speed="13.89" length="5.04" shape="1500.05,499.89 1501.95,498.75 1504.75,498.35"/>
    </edge>
    <edge id=":ag31_3" function="internal">
        <lane id=":ag31_3_0" index="0" speed="13.89" length="5.00" shape="1504.75,501.65 1503.39,501.84 1502.43,502.42 1501.84,503.39 1501.65,504.75"/>
    </edge>
    <edge id=":ag31_4" function="internal">
        <lane id=":ag31_4_0" index="0" speed="13.89" length="9.50" shape="1504.75,501.65 1495.25,501.65"/>
    </edge>
    <edge id=":ag31_5" function="internal">
        <lane id=":ag31_5_0" index="0" speed="13.89" length="5.28" shape="1504.75,501.65 1501.95,501.25 1499.95,500.05 1499.89,499.95"/>
    </edge>
    <edge id=":ag31_13" function="internal">
        <lane id=":ag31_13_0" index="0" speed="13.89" length="5.04" shape="1499.89,499.95 1498.75,498.05 1498.35,495.25"/>
    </edge>
    <edge id=":ag31_6" function="internal">
        <lane id=":ag31_6_0" index="0" speed="13.89" length="5.00" shape="1501.65,495.25 1501.84,496.61 1502.43,497.58 1503.39,498.16 1504.75,498.35"/>
    </edge>
    <edge id=":ag31_7" function="internal">
        <lane id=":ag31_7_0" index="0" speed="13.89" length="9.50" shape="1501.65,495.25 1501.65,504.75"/>
    </edge>
    <edge id=":ag31_8" function="internal">
        <lane id=":ag31_8_0" index="0" speed="13.89" length="5.28" shape="1501.65,495.25 1501.25,498.05 1500.05,500.05 1499.95,500.11"/>
    </edge>
    <edge id=":ag31_14" function="internal">
        <lane id=":ag31_14_0" index="0" speed="13.89" length="5.04" shape="1499.95,500.11 1498.05,501.25 1495.25,501.65"/>
    </edge>
    <edge id=":ag31_9" function="internal">
        <lane id=":ag31_9_0" index="0" speed="13.89" length="5.00" shape="1495.25,498.35 1496.61,498.16 1497.57,497.58 1498.16,496.61 1498.35,495.25"/>
    </edge>
    <edge id=":ag31_10" function="internal">
        <lane id=":ag31_10_0" index="0" speed="13.89" length="9.50" shape="1495.25,498.35 1504.75,498.35"/>
    </edge>
    <edge id=":ag31_11" function="internal">
        <lane id=":ag31_11_0" index="0" speed="13.89" length="5.28" shape="1495.25,498.35 1498.05,498.75 1500.05,499.95 1500.11,500.05"/>
    </edge>
    <edge id=":ag31_15" function="internal">
        <lane id=":ag31_15_0" index="0" speed="13.89" length="5.04" shape="1500.11,500.05 1501.25,501.95 1501.65,504.75"/>
    </edge>
    <edge id=":ag32_0" function="internal">
        <lane id=":ag32_0_0" index="0" speed="13.89" length="5.00" shape="1498.35,1104.75 1498.16,1103.39 1497.57,1102.43 1496.61,1101.84 1495.25,1101.65"/>
    </edge>
    <edge id=":ag32_1" function="internal">
        <lane id=":ag32_1_0" index="0" speed="13.89" length="9.50" shape="1498.35,1104.75 1498.35,1095.25"/>
    </edge>
    <edge id=":ag32_2" function="internal">
        <lane id=":ag32_2_0" index="0" speed="13.89" length="5.28" shape="1498.35,1104.75 1498.75,1101.95 1499.95,1099.95 1500.05,1099.89"/>
    </edge>
    <edge id=":ag32_12" function="internal">
        <lane id=":ag32_12_0" index="0" speed="13.89" length="5.04" shape="1500.05,1099.89 1501.95,1098.75 1504.75,1098.35"/>
    </edge>
    <edge id=":ag32_3" function="internal">
        <lane id=":ag32_3_0" index="0" speed="13.89" length="5.00" shape="1504.75,1101.65 1503.39,1101.84 1502.43,1102.43 1501.84,1103.39 1501.65,1104.75"/>
    </edge>
    <edge id=":ag32_4" function="internal">
        <lane id=":ag32_4_0" index="0" speed="13.89" length="9.50" shape="1504.75,1101.65 1495.25,1101.65"/>
    </edge>
    <edge id=":ag32_5" function="internal">
        <lane id=":ag32_5_0" index="0" speed="13.89" length="5.28" shape="1504.75,1101.65 1501.95,1101.25 1499.95,1100.05 1499.89,1099.95"/>
    </edge>
    <edge id=":ag32_13" function="internal">
        <lane id=":ag32_13_0" index="0" speed="13.89" length="5.04" shape="1499.89,1099.95 1498.75,1098.05 1498.35,1095.25"/>
    </edge>
    <edge id=":ag32_6" function="internal">
        <lane id=":ag32_6_0" index="0" speed="13.89" length="5.00" shape="1501.65,1095.25 1501.84,1096.61 1502.43,1097.57 1503.39,1098.16 1504.75,1098.35"/>
    </edge>
    <edge id=":ag32_7" function="internal">
        <lane id=":ag32_7_0" index="0" speed="13.89" length="9.50" shape="1501.65,1095.25 1501.65,1104.75"/>
    </edge>
    <edge id=":ag32_8" function="internal">
        <lane id=":ag32_8_0" index="0" speed="13.89" length="5.28" shape="1501.65,1095.25 1501.25,1098.05 1500.05,1100.05 1499.95,1100.11"/>
    </edge>
    <edge id=":ag32_14" function="internal">
        <lane id=":ag32_14_0" index="0" speed="13.89" length="5.04" shape="1499.95,1100.11 1498.05,1101.25 1495.25,1101.65"/>
    </edge>
    <edge id=":ag32_9" function="internal">
        <lane id=":ag32_9_0" index="0" speed="13.89" length="5.00" shape="1495.25,1098.35 1496.61,1098.16 1497.57,1097.57 1498.16,1096.61 1498.35,1095.25"/>
    </edge>
    <edge id=":ag32_10" function="internal">
        <lane id=":ag32_10_0" index="0" speed="13.89" length="9.50" shape="1495.25,1098.35 1504.75,1098.35"/>
    </edge>
    <edge id=":ag32_11" function="internal">
        <lane id=":ag32_11_0" index="0" speed="13.89" length="5.28" shape="1495.25,1098.35 1498.05,1098.75 1500.05,1099.95 1500.11,1100.05"/>
    </edge>
    <edge id=":ag32_15" function="internal">
        <lane id=":ag32_15_0" index="0" speed="13.89" length="5.04" shape="1500.11,1100.05 1501.25,1101.95 1501.65,1104.75"/>
    </edge>
    <edge id=":ag33_0" function="internal">
        <lane id=":ag33_0_0" index="0" speed="13.89" length="5.00" shape="1498.35,1704.75 1498.16,1703.39 1497.57,1702.43 1496.61,1701.84 1495.25,1701.65"/>
    </edge>
    <edge id=":ag33_1" function="internal">
        <lane id=":ag33_1_0" index="0" speed="13.89" length="9.50" shape="1498.35,1704.75 1498.35,1695.25"/>
    </edge>
    <edge id=":ag33_2" function="internal">
        <lane id=":ag33_2_0" index="0" speed="13.89" length="5.28" shape="1498.35,1704.75 1498.75,1701.95 1499.95,1699.95 1500.05,1699.89"/>
    </edge>
    <edge id=":ag33_12" function="internal">
        <lane id=":ag33_12_0" index="0" speed="13.89" length="5.04" shape="1500.05,1699.89 1501.95,1698.75 1504.75,1698.35"/>
    </edge>
    <edge id=":ag33_3" function="internal">
        <lane id=":ag33_3_0" index="0" speed="13.89" length="5.00" shape="1504.75,1701.65 1503.39,1701.84 1502.43,1702.43 1501.84,1703.39 1501.65,1704.75"/>
    </edge>
    <edge id=":ag33_4" function="internal">
        <lane id=":ag33_4_0" index="0" speed="13.89" length="9.50" shape="1504.75,1701.65 1495.25,1701.65"/>
    </edge>
    <edge id=":ag33_5" function="internal">
        <lane id=":ag33_5_0" index="0" speed="13.89" length="5.28" shape="1504.75,1701.65 1501.95,1701.25 1499.95,1700.05 1499.89,1699.95"/>
    </edge>
    <edge id=":ag33_13" function="internal">
        <lane id=":ag33_13_0" index="0" speed="13.89" length="5.04" shape="1499.89,1699.95 1498.75,1698.05 1498.35,1695.25"/>
    </edge>
    <edge id=":ag33_6" function="internal">
        <lane id=":ag33_6_0" index="0" speed="13.89" length="5.00" shape="1501.65,1695.25 1501.84,1696.61 1502.43,1697.57 1503.39,1698.16 1504.75,1698.35"/>
    </edge>
    <edge id=":ag33_7" function="internal">
        <lane id=":ag33_7_0" index="0" speed="13.89" length="9.50" shape="1501.65,1695.25 1501.65,1704.75"/>
    </edge>
    <edge id=":ag33_8" function="internal">
        <lane id=":ag33_8_0" index="0" speed="13.89" length="5.28" shape="1501.65,1695.25 1501.25,1698.05 1500.05,1700.05 1499.95,1700.11"/>
    </edge>
    <edge id=":ag33_14" function="internal">
        <lane id=":ag33_14_0" index="0" speed="13.89" length="5.04" shape="1499.95,1700.11 1498.05,1701.25 1495.25,1701.65"/>
    </edge>
    <edge id=":ag33_9" function="internal">
        <lane id=":ag33_9_0" index="0" speed="13.89" length="5.00" shape="1495.25,1698.35 1496.61,1698.16 1497.57,1697.57 1498.16,1696.61 1498.35,1695.25"/>
    </edge>
    <edge id=":ag33_10" function="internal">
        <lane id=":ag33_10_0" index="0" speed="13.89" length="9.50" shape="1495.25,1698.35 1504.75,1698.35"/>
    </edge>
    <edge id=":ag33_11" function="internal">
        <lane id=":ag33_11_0" index="0" speed="13.89" length="5.28" shape="1495.25,1698.35 1498.05,1698.75 1500.05,1699.95 1500.11,1700.05"/>
    </edge>
    <edge id=":ag33_15" function="internal">
        <lane id=":ag33_15_0" index="0" speed="13.89" length="5.04" shape="1500.11,1700.05 1501.25,1701.95 1501.65,1704.75"/>
    </edge>
    <edge id=":gneJ14_0" function="internal">
        <lane id=":gneJ14_0_0" index="0" speed="13.89" length="0.10" shape="1800.00,501.65 1800.00,501.65"/>
    </edge>
    <edge id=":gneJ14_1" function="internal">
        <lane id=":gneJ14_1_0" index="0" speed="13.89" length="0.10" shape="1800.00,498.35 1800.00,498.35"/>
    </edge>
    <edge id=":gneJ16_0" function="internal">
        <lane id=":gneJ16_0_0" index="0" speed="13.89" length="0.10" shape="1498.35,800.00 1498.35,800.00"/>
    </edge>
    <edge id=":gneJ16_1" function="internal">
        <lane id=":gneJ16_1_0" index="0" speed="13.89" length="0.10" shape="1501.65,800.00 1501.65,800.00"/>
    </edge>
    <edge id=":gneJ17_0" function="internal">